meshFile "/home/sujal/Desktop/su2/gmsh-4.12.2-Linux64/bin/jet_geometry.msh";

PHYSICAL_PROBLEM= EULER
MATH_PROBLEM= DIRECT

AXISYMMETRIC= YES
REGIME_TYPE= INCOMPRESSIBLE
RESTART_SOL= YES
SYSTEM_MEASUREMENTS= SI

REF_ORIGIN_MOMENT_X = 0.00
REF_ORIGIN_MOMENT_Y = 0.00
REF_ORIGIN_MOMENT_Z = 0.00

BODY_FORCE= NO
BODY_FORCE_VECTOR= ( 0.0, 0.0, 0.0 )

% mesh file input output information
% Mesh input file
MESH_FILENAME= 
%
% Mesh input file format (SU2, CGNS, NETCDF_ASCII)
MESH_FORMAT= SU2
%
% Mesh output file
MESH_OUT_FILENAME= 
%
% Restart flow input file
SOLUTION_FILENAME= 
%
% Output file format (TECPLOT, CSV)
TABULAR_FORMAT= CSV
%
% Output file convergence history (w/o extension)
CONV_FILENAME= history
%
% Output file restart flow
RESTART_FILENAME= 

% Output file flow (w/o extension) variables
VOLUME_FILENAME= flow

% Output file surface flow coefficient (w/o extension)
SURFACE_FILENAME= surface_flow

%
% Writing solution file frequency
OUTPUT_WRT_FREQ= 250
%
% Output file format
OUTPUT_FILES= (RESTART, PARAVIEW, SURFACE_CSV)
