meshFile "/home/sujal/Desktop/su2/gmsh-4.12.2-Linux64/bin/jet_geometry.msh";
inlet
{
    type fixedValue;
    type axisymmetricInlet;
    value uniform (0, 0, 1); // Example velocity boundary condition
}

outlet
{
    type zeroGradient; 
     type axisymmetricOutlet;
    // Example pressure boundary condition
}

walls
{
    type fixedValue;
    value uniform (0, 0, 0); 
     type axisymmetricWall;// Example no-slip wall boundary condition
}
solver
{
    type euler; // Example choice of solver
    tolerance 1e-6; // Example convergence tolerance
    relTol 0.1; // Example relative tolerance
    maxIter 1000; // Example maximum number of iterations
}
turbulenceModel
{
    type kOmegaSST; // Example choice of turbulence model
}
PHYSICAL_PROBLEM= EULER
MATH_PROBLEM= DIRECT

AXISYMMETRIC= YES
REGIME_TYPE= INCOMPRESSIBLE
RESTART_SOL= YES
SYSTEM_MEASUREMENTS= SI

REF_ORIGIN_MOMENT_X = 0.00
REF_ORIGIN_MOMENT_Y = 0.00
REF_ORIGIN_MOMENT_Z = 0.00

% Apply a body force as a source term (NO, YES)
BODY_FORCE= NO
%
% Vector of body force values (BodyForce_X, BodyForce_Y, BodyForce_Z)
BODY_FORCE_VECTOR= ( 0.0, 0.0, 0.0 )



% mesh file input output information
% Mesh input file
MESH_FILENAME= mesh_NACA0012_inv.su2
%
% Mesh input file format (SU2, CGNS, NETCDF_ASCII)
MESH_FORMAT= SU2
%
% Mesh output file
MESH_OUT_FILENAME= mesh_out.su2
%
% Restart flow input file
SOLUTION_FILENAME= solution_flow.dat
%
% Restart adjoint input file
SOLUTION_ADJ_FILENAME= solution_adj.dat
%
% Output file format (TECPLOT, CSV)
TABULAR_FORMAT= CSV
%
% Output file convergence history (w/o extension)
CONV_FILENAME= history
%
% Output file restart flow
RESTART_FILENAME= restart_flow.dat

% Output file flow (w/o extension) variables
VOLUME_FILENAME= flow

% Output Objective function gradient (using continuous adjoint)
GRAD_OBJFUNC_FILENAME= of_grad.dat
%
% Output file surface flow coefficient (w/o extension)
SURFACE_FILENAME= surface_flow

%
% Writing solution file frequency
OUTPUT_WRT_FREQ= 250
%
% Output file format
OUTPUT_FILES= (RESTART, PARAVIEW, SURFACE_CSV)
